Version 4
SHEET 1 2148 680
WIRE 1104 -1184 1072 -1184
WIRE 1360 -1184 1168 -1184
WIRE 240 -1152 176 -1152
WIRE 96 -1136 0 -1136
WIRE 96 -1120 96 -1136
WIRE 240 -1120 96 -1120
WIRE 416 -1104 368 -1104
WIRE 528 -1104 480 -1104
WIRE 560 -1104 528 -1104
WIRE 704 -1104 640 -1104
WIRE 240 -1088 96 -1088
WIRE 800 -1088 768 -1088
WIRE 832 -1088 800 -1088
WIRE 928 -1088 896 -1088
WIRE 976 -1088 928 -1088
WIRE 1072 -1088 1072 -1184
WIRE 1072 -1088 1056 -1088
WIRE 1088 -1088 1072 -1088
WIRE 1200 -1088 1168 -1088
WIRE 1264 -1088 1200 -1088
WIRE 704 -1072 672 -1072
WIRE 1360 -1072 1360 -1184
WIRE 1360 -1072 1328 -1072
WIRE 96 -1056 96 -1088
WIRE 96 -1056 0 -1056
WIRE 240 -1056 176 -1056
WIRE 928 -1056 928 -1088
WIRE 1264 -1056 1216 -1056
WIRE 528 -1040 528 -1104
WIRE 1200 -1040 1200 -1088
WIRE 528 -944 528 -960
WIRE 560 -944 528 -944
WIRE 672 -944 672 -1072
WIRE 672 -944 640 -944
WIRE 688 -944 672 -944
WIRE 800 -944 800 -1088
WIRE 800 -944 768 -944
WIRE 928 -912 928 -976
WIRE 1088 -912 928 -912
WIRE 1216 -912 1216 -1056
WIRE 1216 -912 1168 -912
WIRE 1232 -912 1216 -912
WIRE 1360 -912 1360 -1072
WIRE 1360 -912 1312 -912
WIRE 528 -880 528 -944
WIRE 928 -880 928 -912
WIRE 928 -880 528 -880
WIRE 528 -848 528 -880
WIRE 1104 -736 1072 -736
WIRE 1360 -736 1168 -736
WIRE 240 -704 176 -704
WIRE 96 -688 0 -688
WIRE 96 -672 96 -688
WIRE 240 -672 96 -672
WIRE 416 -656 368 -656
WIRE 528 -656 480 -656
WIRE 560 -656 528 -656
WIRE 704 -656 640 -656
WIRE 240 -640 96 -640
WIRE 800 -640 768 -640
WIRE 832 -640 800 -640
WIRE 928 -640 896 -640
WIRE 976 -640 928 -640
WIRE 1072 -640 1072 -736
WIRE 1072 -640 1056 -640
WIRE 1088 -640 1072 -640
WIRE 1200 -640 1168 -640
WIRE 1264 -640 1200 -640
WIRE -560 -624 -560 -736
WIRE 704 -624 672 -624
WIRE 1360 -624 1360 -736
WIRE 1360 -624 1328 -624
WIRE 96 -608 96 -640
WIRE 96 -608 0 -608
WIRE 240 -608 176 -608
WIRE 928 -608 928 -640
WIRE 1264 -608 1216 -608
WIRE 528 -592 528 -656
WIRE 1200 -592 1200 -640
WIRE 528 -496 528 -512
WIRE 560 -496 528 -496
WIRE 672 -496 672 -624
WIRE 672 -496 640 -496
WIRE 688 -496 672 -496
WIRE 800 -496 800 -640
WIRE 800 -496 768 -496
WIRE -560 -464 -560 -544
WIRE 928 -464 928 -528
WIRE 1088 -464 928 -464
WIRE 1216 -464 1216 -608
WIRE 1216 -464 1168 -464
WIRE 1232 -464 1216 -464
WIRE 1360 -464 1360 -624
WIRE 1360 -464 1312 -464
WIRE 1776 -464 1744 -464
WIRE 2032 -464 1840 -464
WIRE 528 -432 528 -496
WIRE 928 -432 928 -464
WIRE 928 -432 528 -432
WIRE 528 -400 528 -432
WIRE 1744 -368 1744 -464
WIRE 1744 -368 1728 -368
WIRE 1760 -368 1744 -368
WIRE 1872 -368 1840 -368
WIRE 1936 -368 1872 -368
WIRE 2032 -352 2032 -464
WIRE 2032 -352 2000 -352
WIRE -816 -336 -816 -416
WIRE -560 -336 -560 -384
WIRE -432 -336 -432 -432
WIRE 1936 -336 1904 -336
WIRE 1872 -320 1872 -368
WIRE 2032 -320 2032 -352
WIRE 1904 -288 1904 -336
WIRE 2000 -288 1904 -288
WIRE 1872 -224 1872 -256
WIRE 1904 -224 1872 -224
WIRE 2000 -224 2000 -288
WIRE 2000 -224 1984 -224
WIRE 2032 -224 2032 -240
WIRE 2032 -224 2000 -224
WIRE -1024 -208 -1024 -256
WIRE -816 -208 -816 -256
WIRE -816 -208 -1024 -208
WIRE -560 -208 -560 -256
WIRE -560 -208 -816 -208
WIRE -496 -208 -560 -208
WIRE -432 -208 -432 -256
WIRE -432 -208 -496 -208
WIRE 1872 -192 1872 -224
WIRE -496 -176 -496 -208
WIRE -272 -32 -272 -80
WIRE -272 80 -272 48
WIRE -272 80 -336 80
WIRE -336 96 -336 80
WIRE -272 96 -272 80
WIRE -272 208 -272 176
FLAG -336 96 0
FLAG -272 -80 Vcc
FLAG -272 208 Vdd
FLAG -496 -176 0
FLAG -560 -736 Vin1+
FLAG -432 -432 Vin-
FLAG 304 -720 Vcc
FLAG 272 -592 Vdd
FLAG 176 -704 Vin1+
FLAG 176 -608 Vin-
FLAG 528 -400 0
FLAG 736 -608 Vcc
FLAG 736 -672 Vdd
FLAG 1296 -592 Vcc
FLAG 1296 -656 Vdd
FLAG 1968 -320 Vcc
FLAG 1968 -384 Vdd
FLAG 1872 -192 0
FLAG 1392 -160 0
FLAG 1392 -240 Vac
FLAG 1648 -368 Vac
FLAG 1200 -528 0
FLAG -816 -496 Vin2+
FLAG 304 -1168 Vcc
FLAG 272 -1040 Vdd
FLAG 176 -1152 Vin2+
FLAG 176 -1056 Vin-
FLAG 528 -848 0
FLAG 736 -1056 Vcc
FLAG 736 -1120 Vdd
FLAG 1296 -1040 Vcc
FLAG 1296 -1104 Vdd
FLAG 1200 -976 0
FLAG -1024 -336 Vin3+
SYMBOL voltage -272 -48 R0
WINDOW 123 0 0 Left 0
WINDOW 39 0 0 Left 0
SYMATTR InstName V1
SYMATTR Value 5V
SYMBOL voltage -272 80 R0
WINDOW 123 0 0 Left 0
WINDOW 39 0 0 Left 0
SYMATTR InstName V2
SYMATTR Value 5V
SYMBOL voltage -560 -352 R0
WINDOW 123 0 0 Left 0
WINDOW 39 0 0 Left 0
SYMATTR InstName Vin1+
SYMATTR Value SINE(0 50u 300)
SYMBOL voltage -432 -352 R0
WINDOW 123 0 0 Left 0
WINDOW 39 0 0 Left 0
SYMATTR InstName Vin-
SYMATTR Value 0
SYMBOL OpAmps\\AD8236 304 -656 R0
SYMATTR InstName U4
SYMBOL cap 480 -672 R90
WINDOW 0 0 32 VBottom 2
WINDOW 3 32 32 VTop 2
SYMATTR InstName C1
SYMATTR Value 10µ
SYMBOL res 544 -496 R180
WINDOW 0 36 76 Left 2
WINDOW 3 36 40 Left 2
SYMATTR InstName R9
SYMATTR Value 100k
SYMBOL OpAmps\\LT1012 736 -576 M180
SYMATTR InstName U5
SYMBOL res 656 -672 R90
WINDOW 0 0 56 VBottom 2
WINDOW 3 32 56 VTop 2
SYMATTR InstName R10
SYMATTR Value 1k
SYMBOL res 656 -512 R90
WINDOW 0 0 56 VBottom 2
WINDOW 3 32 56 VTop 2
SYMATTR InstName R11
SYMATTR Value 1k
SYMBOL res 784 -512 R90
WINDOW 0 0 56 VBottom 2
WINDOW 3 32 56 VTop 2
SYMATTR InstName R12
SYMATTR Value 105k
SYMBOL cap 896 -656 R90
WINDOW 0 0 32 VBottom 2
WINDOW 3 32 32 VTop 2
SYMATTR InstName C2
SYMATTR Value 10µ
SYMBOL res 912 -624 R0
SYMATTR InstName R13
SYMATTR Value 100k
SYMBOL res 1072 -656 R90
WINDOW 0 0 56 VBottom 2
WINDOW 3 32 56 VTop 2
SYMATTR InstName R14
SYMATTR Value 600
SYMBOL res 1184 -656 R90
WINDOW 0 0 56 VBottom 2
WINDOW 3 32 56 VTop 2
SYMATTR InstName R15
SYMATTR Value 16k
SYMBOL cap 1168 -752 R90
WINDOW 0 0 32 VBottom 2
WINDOW 3 32 32 VTop 2
SYMATTR InstName C3
SYMATTR Value 100n
SYMBOL cap 1216 -528 R180
WINDOW 0 24 56 Left 2
WINDOW 3 24 8 Left 2
SYMATTR InstName C4
SYMATTR Value 100n
SYMBOL res 1184 -480 R90
WINDOW 0 0 56 VBottom 2
WINDOW 3 32 56 VTop 2
SYMATTR InstName R16
SYMATTR Value 2.5k
SYMBOL res 1328 -480 R90
WINDOW 0 0 56 VBottom 2
WINDOW 3 32 56 VTop 2
SYMATTR InstName R17
SYMATTR Value 50k
SYMBOL OpAmps\\LT1012 1296 -560 M180
SYMATTR InstName U6
SYMBOL res 1744 -384 R90
WINDOW 0 0 56 VBottom 2
WINDOW 3 32 56 VTop 2
SYMATTR InstName R18
SYMATTR Value 600
SYMBOL res 1856 -384 R90
WINDOW 0 0 56 VBottom 2
WINDOW 3 32 56 VTop 2
SYMATTR InstName R19
SYMATTR Value 16k
SYMBOL cap 1840 -480 R90
WINDOW 0 0 32 VBottom 2
WINDOW 3 32 32 VTop 2
SYMATTR InstName C5
SYMATTR Value 100n
SYMBOL cap 1888 -256 R180
WINDOW 0 24 56 Left 2
WINDOW 3 24 8 Left 2
SYMATTR InstName C6
SYMATTR Value 100n
SYMBOL res 2016 -336 R0
SYMATTR InstName R20
SYMATTR Value 50k
SYMBOL voltage 1392 -256 R0
WINDOW 123 24 44 Left 2
WINDOW 39 0 0 Left 0
SYMATTR Value2 AC 1
SYMATTR InstName V3
SYMATTR Value ""
SYMBOL OpAmps\\LT1012 1968 -288 M180
SYMATTR InstName U7
SYMBOL res 2000 -240 R90
WINDOW 0 0 56 VBottom 2
WINDOW 3 32 56 VTop 2
SYMATTR InstName R21
SYMATTR Value 2.5k
SYMBOL res -16 -704 R0
SYMATTR InstName R22
SYMATTR Value 210k
SYMBOL voltage -560 -480 R0
WINDOW 123 0 0 Left 0
WINDOW 39 0 0 Left 0
SYMATTR InstName Vin2+
SYMATTR Value SINE(0 50u 1000)
SYMBOL voltage -560 -640 R0
WINDOW 123 0 0 Left 0
WINDOW 39 0 0 Left 0
SYMATTR InstName Vin3+
SYMATTR Value SINE(0 50u 100)
SYMBOL voltage -816 -352 R0
WINDOW 123 0 0 Left 0
WINDOW 39 0 0 Left 0
SYMATTR InstName Vin+
SYMATTR Value SINE(0 50u 300)
SYMBOL OpAmps\\AD8236 304 -1104 R0
SYMATTR InstName U1
SYMBOL cap 480 -1120 R90
WINDOW 0 0 32 VBottom 2
WINDOW 3 32 32 VTop 2
SYMATTR InstName C7
SYMATTR Value 10µ
SYMBOL res 544 -944 R180
WINDOW 0 36 76 Left 2
WINDOW 3 36 40 Left 2
SYMATTR InstName R1
SYMATTR Value 100k
SYMBOL OpAmps\\LT1012 736 -1024 M180
SYMATTR InstName U2
SYMBOL res 656 -1120 R90
WINDOW 0 0 56 VBottom 2
WINDOW 3 32 56 VTop 2
SYMATTR InstName R2
SYMATTR Value 1k
SYMBOL res 656 -960 R90
WINDOW 0 0 56 VBottom 2
WINDOW 3 32 56 VTop 2
SYMATTR InstName R3
SYMATTR Value 1k
SYMBOL res 784 -960 R90
WINDOW 0 0 56 VBottom 2
WINDOW 3 32 56 VTop 2
SYMATTR InstName R4
SYMATTR Value 105k
SYMBOL cap 896 -1104 R90
WINDOW 0 0 32 VBottom 2
WINDOW 3 32 32 VTop 2
SYMATTR InstName C8
SYMATTR Value 10µ
SYMBOL res 912 -1072 R0
SYMATTR InstName R5
SYMATTR Value 100k
SYMBOL res 1072 -1104 R90
WINDOW 0 0 56 VBottom 2
WINDOW 3 32 56 VTop 2
SYMATTR InstName R6
SYMATTR Value 600
SYMBOL res 1184 -1104 R90
WINDOW 0 0 56 VBottom 2
WINDOW 3 32 56 VTop 2
SYMATTR InstName R7
SYMATTR Value 16k
SYMBOL cap 1168 -1200 R90
WINDOW 0 0 32 VBottom 2
WINDOW 3 32 32 VTop 2
SYMATTR InstName C9
SYMATTR Value 100n
SYMBOL cap 1216 -976 R180
WINDOW 0 24 56 Left 2
WINDOW 3 24 8 Left 2
SYMATTR InstName C10
SYMATTR Value 100n
SYMBOL res 1184 -928 R90
WINDOW 0 0 56 VBottom 2
WINDOW 3 32 56 VTop 2
SYMATTR InstName R8
SYMATTR Value 2.5k
SYMBOL res 1328 -928 R90
WINDOW 0 0 56 VBottom 2
WINDOW 3 32 56 VTop 2
SYMATTR InstName R23
SYMATTR Value 50k
SYMBOL OpAmps\\LT1012 1296 -1008 M180
SYMATTR InstName U3
SYMBOL res -16 -1152 R0
SYMATTR InstName R24
SYMATTR Value 210k
SYMBOL voltage -816 -512 R0
WINDOW 123 0 0 Left 0
WINDOW 39 0 0 Left 0
SYMATTR InstName Vin1
SYMATTR Value SINE(0 50u 100)
SYMBOL voltage -1024 -352 R0
WINDOW 123 0 0 Left 0
WINDOW 39 0 0 Left 0
SYMATTR InstName Vin2
SYMATTR Value SINE(0 200u 300)
TEXT -592 304 Left 2 !.ac dec 1000 0.1 100000
