Version 4
SHEET 1 1252 680
WIRE 496 -32 -192 -32
WIRE 496 96 496 -32
WIRE 496 96 336 96
WIRE -192 144 -192 -32
WIRE 80 160 -16 160
WIRE -16 208 -16 160
WIRE 80 224 48 224
WIRE 416 224 336 224
WIRE -16 288 -16 272
WIRE 80 288 -16 288
WIRE 480 288 336 288
WIRE -192 400 -192 224
WIRE 48 400 48 224
WIRE 48 400 -192 400
WIRE 160 400 48 400
WIRE 416 400 416 224
WIRE 416 400 160 400
WIRE 480 400 480 352
WIRE 480 400 416 400
WIRE 160 432 160 400
FLAG 160 432 0
SYMBOL PowerProducts\\LTC1044 208 192 R0
SYMATTR InstName U1
SYMBOL cap 464 288 R0
SYMATTR InstName C1
SYMATTR Value 0.0000001
SYMBOL cap -32 208 R0
SYMATTR InstName C2
SYMATTR Value 0.00001
SYMBOL voltage -192 128 R0
WINDOW 123 0 0 Left 0
WINDOW 39 0 0 Left 0
SYMATTR InstName V2
SYMATTR Value PULSE(3.25 3.35 0 1u 1u 0 1u)
TEXT -224 456 Left 2 !.tran 0 0.001 0 0.00001
TEXT -224 488 Left 2 !.include INA818.LIB
