Version 4
SHEET 1 880 680
WIRE -144 -176 -224 -176
WIRE 192 -176 -64 -176
WIRE 288 -128 48 -128
WIRE 608 -128 288 -128
WIRE -224 -64 -224 -176
WIRE 608 -32 608 -128
WIRE 48 -16 48 -128
WIRE -224 48 -224 16
WIRE -48 48 -224 48
WIRE 288 48 288 -128
WIRE 192 64 192 -176
WIRE 224 64 192 64
WIRE 608 64 608 48
WIRE 608 64 544 64
WIRE 608 80 608 64
WIRE -224 112 -224 48
WIRE 448 112 352 112
WIRE -48 128 -48 48
WIRE -16 128 -48 128
WIRE 0 128 -16 128
WIRE 48 128 48 64
WIRE 48 128 0 128
WIRE 448 144 448 112
WIRE 224 160 192 160
WIRE 0 176 0 128
WIRE 48 176 48 128
WIRE -16 240 -16 128
WIRE 448 240 448 224
WIRE 448 240 -16 240
WIRE -224 256 -224 192
WIRE -160 256 -224 256
WIRE 0 256 -80 256
WIRE 320 256 320 176
WIRE 544 256 544 64
WIRE 544 256 320 256
WIRE 0 272 0 256
WIRE 192 272 192 160
WIRE 192 272 0 272
WIRE -48 288 -48 128
WIRE 608 288 608 160
WIRE 608 288 -48 288
WIRE 48 304 48 256
WIRE 256 304 256 176
WIRE 256 304 48 304
FLAG 0 176 0
SYMBOL OpAmps\\AD8236 288 112 R0
SYMATTR InstName U1
SYMBOL voltage 48 -32 R0
WINDOW 123 0 0 Left 0
WINDOW 39 0 0 Left 0
SYMATTR InstName V1
SYMATTR Value 3.3
SYMBOL voltage 48 160 R0
WINDOW 123 0 0 Left 0
WINDOW 39 0 0 Left 0
SYMATTR InstName V2
SYMATTR Value 3.3
SYMBOL voltage -224 -80 R0
WINDOW 123 0 0 Left 0
WINDOW 39 0 0 Left 0
SYMATTR InstName V3
SYMATTR Value PULSE(0 100u 0 1n 1n 0.005 0.01)
SYMBOL res 432 128 R0
SYMATTR InstName R2
SYMATTR Value 100000
SYMBOL res -48 -192 R90
WINDOW 0 0 56 VBottom 2
WINDOW 3 32 56 VTop 2
SYMATTR InstName R1
SYMATTR Value 1000
SYMBOL voltage -224 96 R0
WINDOW 123 0 0 Left 0
WINDOW 39 0 0 Left 0
SYMATTR InstName V4
SYMATTR Value 0
SYMBOL res -64 240 R90
WINDOW 0 0 56 VBottom 2
WINDOW 3 32 56 VTop 2
SYMATTR InstName R3
SYMATTR Value 1000
SYMBOL res 592 -48 R0
SYMATTR InstName R4
SYMATTR Value 132000
SYMBOL res 592 64 R0
SYMATTR InstName R5
SYMATTR Value 200
TEXT 16 320 Left 2 !.tran 0 0.1 0 0.00001
